#------------------------------------------------------------------------------
#          Harvard University Atmospheric Chemistry Modeling Group            !
#------------------------------------------------------------------------------
#BOI
# !TITLE: Makefiles used to build the GEOS-FP data processing code
# !AUTHORS: GEOS-Chem Support Team
# !DATE: November 1, 2011
#EOI
#------------------------------------------------------------------------------
