!------------------------------------------------------------------------------
!          Harvard University Atmospheric Chemistry Modeling Group            !
!------------------------------------------------------------------------------
!BOI
! !TITLE: GeosFpDriver: Code for processing GEOS-FP met data
! !AUTHORS: GEOS-Chem Support Team
! !DATE: 12 Jan 2012
!EOI
!------------------------------------------------------------------------------
